REMARK  11 active torsions:
REMARK  status: ('A' for Active; 'I' for Inactive)
REMARK    1  A    between atoms: N_8  and  C_21 
REMARK    2  A    between atoms: N_9  and  C_20 
REMARK    3  A    between atoms: N_9  and  C_24 
REMARK    4  A    between atoms: N_10  and  C_22 
REMARK    5  A    between atoms: N_10  and  C_30 
REMARK    6  A    between atoms: C_16  and  C_20 
REMARK    7  A    between atoms: C_21  and  C_22 
REMARK    8  A    between atoms: C_22  and  C_23 
REMARK    9  A    between atoms: C_24  and  C_28 
REMARK   10  A    between atoms: C_28  and  C_29 
REMARK   11  A    between atoms: C_30  and  C_34 
ROOT
ATOM      1  N   UNL d   1     -28.353 -13.975  54.602  0.00  0.00    -0.195 NA
ATOM      2  C   UNL d   1     -28.425 -11.480  53.733  0.00  0.00     0.177 C 
ATOM      3  C   UNL d   1     -28.386 -12.879  54.221  0.00  0.00     0.085 C 
ENDROOT
BRANCH   2   4
ATOM      4  N   UNL d   1     -27.232 -10.770  54.178  0.00  0.00    -0.298 N 
ATOM      5  H   UNL d   1     -26.484 -10.600  53.499  0.00  0.00     0.150 HD
BRANCH   4   6
ATOM      6  C   UNL d   1     -27.162 -10.080  55.367  0.00  0.00     0.235 C 
ATOM      7  O   UNL d   1     -27.669  -8.968  55.505  0.00  0.00    -0.274 OA
BRANCH   6   8
ATOM      8  C   UNL d   1     -26.381 -10.821  56.484  0.00  0.00     0.166 A 
ATOM      9  N   UNL d   1     -27.313 -11.449  57.439  0.00  0.00    -0.288 N 
ATOM     10  C   UNL d   1     -27.164 -12.900  57.505  0.00  0.00     0.113 A 
ATOM     11  C   UNL d   1     -26.043 -13.230  56.575  0.00  0.00     0.018 A 
ATOM     12  C   UNL d   1     -25.548 -11.964  55.957  0.00  0.00     0.029 A 
ATOM     13  C   UNL d   1     -24.603 -12.802  56.812  0.00  0.00    -0.025 A 
ATOM     14  C   UNL d   1     -23.528 -13.579  56.089  0.00  0.00     0.011 C 
ATOM     15  C   UNL d   1     -24.166 -12.310  58.170  0.00  0.00     0.011 C 
BRANCH   9  16
ATOM     16  C   UNL d   1     -27.949 -10.677  58.389  0.00  0.00     0.237 C 
ATOM     17  O   UNL d   1     -29.108 -10.280  58.203  0.00  0.00    -0.274 OA
BRANCH  16  18
ATOM     18  C   UNL d   1     -27.205 -10.327  59.709  0.00  0.00     0.165 C 
BRANCH  18  19
ATOM     19  N   UNL d   1     -27.739  -9.021  60.114  0.00  0.00    -0.296 N 
ATOM     20  H   UNL d   1     -28.732  -8.866  59.953  0.00  0.00     0.150 HD
BRANCH  19  21
ATOM     21  C   UNL d   1     -26.938  -7.881  60.067  0.00  0.00     0.318 C 
ATOM     22  O   UNL d   1     -27.003  -7.014  60.941  0.00  0.00    -0.266 OA
BRANCH  21  23
ATOM     23  C   UNL d   1     -26.004  -7.795  58.838  0.00  0.00     0.469 C 
ATOM     24  F   UNL d   1     -26.683  -7.784  57.660  0.00  0.00    -0.162 F 
ATOM     25  F   UNL d   1     -25.129  -8.836  58.779  0.00  0.00    -0.162 F 
ATOM     26  F   UNL d   1     -25.246  -6.660  58.857  0.00  0.00    -0.162 F 
ENDBRANCH  21  23
ENDBRANCH  19  21
ENDBRANCH  18  19
BRANCH  18  27
ATOM     27  C   UNL d   1     -27.372 -11.401  60.829  0.00  0.00    -0.011 C 
ATOM     28  C   UNL d   1     -28.695 -12.180  60.721  0.00  0.00     0.013 C 
ATOM     29  C   UNL d   1     -27.334 -10.707  62.210  0.00  0.00     0.013 C 
ATOM     30  C   UNL d   1     -26.207 -12.407  60.785  0.00  0.00     0.013 C 
ENDBRANCH  18  27
ENDBRANCH  16  18
ENDBRANCH   9  16
ENDBRANCH   6   8
ENDBRANCH   4   6
ENDBRANCH   2   4
BRANCH   2  31
ATOM     31  C   UNL d   1     -28.546 -11.470  52.202  0.00  0.00     0.050 C 
BRANCH  31  32
ATOM     32  C   UNL d   1     -28.170 -10.137  51.556  0.00  0.00     0.079 C 
ATOM     33  C   UNL d   1     -28.909  -9.832  50.246  0.00  0.00     0.031 C 
ATOM     34  C   UNL d   1     -27.939  -8.933  49.501  0.00  0.00     0.105 C 
ATOM     35  N   UNL d   1     -26.660  -9.423  49.917  0.00  0.00    -0.315 N 
ATOM     36  C   UNL d   1     -26.721 -10.107  51.112  0.00  0.00     0.216 C 
ATOM     37  H   UNL d   1     -25.770  -9.202  49.487  0.00  0.00     0.149 HD
ATOM     38  O   UNL d   1     -25.762 -10.548  51.720  0.00  0.00    -0.276 OA
ENDBRANCH  31  32
ENDBRANCH   2  31
TORSDOF 8
