REMARK  11 active torsions:
REMARK  status: ('A' for Active; 'I' for Inactive)
REMARK    1  A    between atoms: N_8  and  C_21 
REMARK    2  A    between atoms: N_9  and  C_20 
REMARK    3  A    between atoms: N_9  and  C_24 
REMARK    4  A    between atoms: N_10  and  C_22 
REMARK    5  A    between atoms: N_10  and  C_30 
REMARK    6  A    between atoms: C_16  and  C_20 
REMARK    7  A    between atoms: C_21  and  C_22 
REMARK    8  A    between atoms: C_22  and  C_23 
REMARK    9  A    between atoms: C_24  and  C_28 
REMARK   10  A    between atoms: C_28  and  C_29 
REMARK   11  A    between atoms: C_30  and  C_34 
ROOT
ATOM      1  N   UNL d   1     -29.433 -10.381  54.590  0.00  0.00    -0.195 NA
ATOM      2  C   UNL d   1     -27.384  -9.022  53.621  0.00  0.00     0.177 C 
ATOM      3  C   UNL d   1     -28.533  -9.783  54.163  0.00  0.00     0.085 C 
ENDROOT
BRANCH   2   4
ATOM      4  N   UNL d   1     -26.682  -8.347  54.707  0.00  0.00    -0.298 N 
ATOM      5  H   UNL d   1     -26.953  -7.388  54.941  0.00  0.00     0.150 HD
BRANCH   4   6
ATOM      6  C   UNL d   1     -25.874  -9.005  55.607  0.00  0.00     0.235 C 
ATOM      7  O   UNL d   1     -24.749  -9.399  55.305  0.00  0.00    -0.274 OA
BRANCH   6   8
ATOM      8  C   UNL d   1     -26.519  -9.211  57.004  0.00  0.00     0.166 A 
ATOM      9  N   UNL d   1     -27.664  -8.300  57.185  0.00  0.00    -0.288 N 
ATOM     10  C   UNL d   1     -28.922  -9.009  57.406  0.00  0.00     0.113 A 
ATOM     11  C   UNL d   1     -28.567 -10.460  57.414  0.00  0.00     0.018 A 
ATOM     12  C   UNL d   1     -27.098 -10.593  57.183  0.00  0.00     0.029 A 
ATOM     13  C   UNL d   1     -27.703 -11.107  58.486  0.00  0.00    -0.025 A 
ATOM     14  C   UNL d   1     -27.817 -12.604  58.647  0.00  0.00     0.011 C 
ATOM     15  C   UNL d   1     -27.434 -10.390  59.785  0.00  0.00     0.011 C 
BRANCH   9  16
ATOM     16  C   UNL d   1     -27.447  -6.970  57.477  0.00  0.00     0.237 C 
ATOM     17  O   UNL d   1     -28.087  -6.412  58.379  0.00  0.00    -0.274 OA
BRANCH  16  18
ATOM     18  C   UNL d   1     -26.373  -6.180  56.677  0.00  0.00     0.165 C 
BRANCH  18  19
ATOM     19  N   UNL d   1     -27.132  -5.267  55.815  0.00  0.00    -0.296 N 
ATOM     20  H   UNL d   1     -28.080  -5.044  56.112  0.00  0.00     0.150 HD
BRANCH  19  21
ATOM     21  C   UNL d   1     -26.913  -5.243  54.439  0.00  0.00     0.318 C 
ATOM     22  O   UNL d   1     -27.694  -5.787  53.655  0.00  0.00    -0.266 OA
BRANCH  21  23
ATOM     23  C   UNL d   1     -25.624  -4.512  53.999  0.00  0.00     0.469 C 
ATOM     24  F   UNL d   1     -24.555  -5.346  53.896  0.00  0.00    -0.162 F 
ATOM     25  F   UNL d   1     -25.270  -3.522  54.863  0.00  0.00    -0.162 F 
ATOM     26  F   UNL d   1     -25.769  -3.920  52.777  0.00  0.00    -0.162 F 
ENDBRANCH  21  23
ENDBRANCH  19  21
ENDBRANCH  18  19
BRANCH  18  27
ATOM     27  C   UNL d   1     -25.350  -5.420  57.578  0.00  0.00    -0.011 C 
ATOM     28  C   UNL d   1     -25.801  -3.988  57.922  0.00  0.00     0.013 C 
ATOM     29  C   UNL d   1     -23.992  -5.332  56.846  0.00  0.00     0.013 C 
ATOM     30  C   UNL d   1     -25.118  -6.188  58.893  0.00  0.00     0.013 C 
ENDBRANCH  18  27
ENDBRANCH  16  18
ENDBRANCH   9  16
ENDBRANCH   6   8
ENDBRANCH   4   6
ENDBRANCH   2   4
BRANCH   2  31
ATOM     31  C   UNL d   1     -26.449  -9.972  52.855  0.00  0.00     0.050 C 
BRANCH  31  32
ATOM     32  C   UNL d   1     -26.661  -9.969  51.342  0.00  0.00     0.079 C 
ATOM     33  C   UNL d   1     -25.601 -10.744  50.548  0.00  0.00     0.031 C 
ATOM     34  C   UNL d   1     -25.601 -10.049  49.199  0.00  0.00     0.105 C 
ATOM     35  N   UNL d   1     -25.904  -8.690  49.535  0.00  0.00    -0.315 N 
ATOM     36  C   UNL d   1     -26.542  -8.579  50.752  0.00  0.00     0.216 C 
ATOM     37  H   UNL d   1     -25.804  -7.890  48.923  0.00  0.00     0.149 HD
ATOM     38  O   UNL d   1     -26.979  -7.545  51.223  0.00  0.00    -0.276 OA
ENDBRANCH  31  32
ENDBRANCH   2  31
TORSDOF 8
