REMARK  11 active torsions:
REMARK  status: ('A' for Active; 'I' for Inactive)
REMARK    1  A    between atoms: N_8  and  C_21 
REMARK    2  A    between atoms: N_9  and  C_20 
REMARK    3  A    between atoms: N_9  and  C_24 
REMARK    4  A    between atoms: N_10  and  C_22 
REMARK    5  A    between atoms: N_10  and  C_30 
REMARK    6  A    between atoms: C_16  and  C_20 
REMARK    7  A    between atoms: C_21  and  C_22 
REMARK    8  A    between atoms: C_22  and  C_23 
REMARK    9  A    between atoms: C_24  and  C_28 
REMARK   10  A    between atoms: C_28  and  C_29 
REMARK   11  A    between atoms: C_30  and  C_34 
ROOT
ATOM      1  N   UNL d   1     -21.855  10.635  49.457  0.00  0.00    -0.195 NA
ATOM      2  C   UNL d   1     -20.698  11.556  47.266  0.00  0.00     0.177 C 
ATOM      3  C   UNL d   1     -21.348  11.040  48.494  0.00  0.00     0.085 C 
ENDROOT
BRANCH   2   4
ATOM      4  N   UNL d   1     -19.372  12.071  47.589  0.00  0.00    -0.298 N 
ATOM      5  H   UNL d   1     -19.143  13.031  47.321  0.00  0.00     0.150 HD
BRANCH   4   6
ATOM      6  C   UNL d   1     -18.512  11.445  48.464  0.00  0.00     0.235 C 
ATOM      7  O   UNL d   1     -18.842  10.444  49.097  0.00  0.00    -0.274 OA
BRANCH   6   8
ATOM      8  C   UNL d   1     -17.123  12.126  48.582  0.00  0.00     0.166 A 
ATOM      9  N   UNL d   1     -17.101  13.391  47.825  0.00  0.00    -0.288 N 
ATOM     10  C   UNL d   1     -16.831  14.553  48.669  0.00  0.00     0.113 A 
ATOM     11  C   UNL d   1     -16.621  14.007  50.044  0.00  0.00     0.018 A 
ATOM     12  C   UNL d   1     -16.784  12.524  49.998  0.00  0.00     0.029 A 
ATOM     13  C   UNL d   1     -15.446  13.120  50.424  0.00  0.00    -0.025 A 
ATOM     14  C   UNL d   1     -15.094  13.040  51.891  0.00  0.00     0.011 C 
ATOM     15  C   UNL d   1     -14.243  13.016  49.520  0.00  0.00     0.011 C 
BRANCH   9  16
ATOM     16  C   UNL d   1     -16.978  13.369  46.451  0.00  0.00     0.237 C 
ATOM     17  O   UNL d   1     -16.544  12.361  45.876  0.00  0.00    -0.274 OA
BRANCH  16  18
ATOM     18  C   UNL d   1     -17.411  14.614  45.626  0.00  0.00     0.165 C 
BRANCH  18  19
ATOM     19  N   UNL d   1     -18.584  15.149  46.329  0.00  0.00    -0.296 N 
ATOM     20  H   UNL d   1     -18.542  15.154  47.346  0.00  0.00     0.150 HD
BRANCH  19  21
ATOM     21  C   UNL d   1     -19.860  15.019  45.782  0.00  0.00     0.318 C 
ATOM     22  O   UNL d   1     -20.567  14.039  46.029  0.00  0.00    -0.266 OA
BRANCH  21  23
ATOM     23  C   UNL d   1     -20.285  16.172  44.845  0.00  0.00     0.469 C 
ATOM     24  F   UNL d   1     -21.365  15.857  44.080  0.00  0.00    -0.162 F 
ATOM     25  F   UNL d   1     -19.291  16.539  43.991  0.00  0.00    -0.162 F 
ATOM     26  F   UNL d   1     -20.623  17.294  45.545  0.00  0.00    -0.162 F 
ENDBRANCH  21  23
ENDBRANCH  19  21
ENDBRANCH  18  19
BRANCH  18  27
ATOM     27  C   UNL d   1     -16.287  15.684  45.464  0.00  0.00    -0.011 C 
ATOM     28  C   UNL d   1     -14.874  15.103  45.655  0.00  0.00     0.013 C 
ATOM     29  C   UNL d   1     -16.493  16.802  46.511  0.00  0.00     0.013 C 
ATOM     30  C   UNL d   1     -16.364  16.336  44.071  0.00  0.00     0.013 C 
ENDBRANCH  18  27
ENDBRANCH  16  18
ENDBRANCH   9  16
ENDBRANCH   6   8
ENDBRANCH   4   6
ENDBRANCH   2   4
BRANCH   2  31
ATOM     31  C   UNL d   1     -20.625  10.441  46.212  0.00  0.00     0.050 C 
BRANCH  31  32
ATOM     32  C   UNL d   1     -19.394   9.546  46.336  0.00  0.00     0.079 C 
ATOM     33  C   UNL d   1     -18.554   9.435  45.057  0.00  0.00     0.031 C 
ATOM     34  C   UNL d   1     -17.898   8.072  45.189  0.00  0.00     0.105 C 
ATOM     35  N   UNL d   1     -18.884   7.306  45.890  0.00  0.00    -0.315 N 
ATOM     36  C   UNL d   1     -19.764   8.099  46.595  0.00  0.00     0.216 C 
ATOM     37  H   UNL d   1     -18.890   6.298  45.996  0.00  0.00     0.149 HD
ATOM     38  O   UNL d   1     -20.637   7.690  47.338  0.00  0.00    -0.276 OA
ENDBRANCH  31  32
ENDBRANCH   2  31
TORSDOF 8
