@<TRIPOS>MOLECULE
*****
 67 69 0 0 0
SMALL
GASTEIGER

@<TRIPOS>ATOM
      1 F          -5.1899    0.1255    2.9133 F       1  UNL1       -0.1620
      2 F          -5.9323    1.9520    1.9697 F       1  UNL1       -0.1620
      3 F          -4.0582    1.9832    3.0863 F       1  UNL1       -0.1620
      4 O           2.4146   -2.1150   -0.6122 O.2     1  UNL1       -0.2737
      5 O          -0.5960    0.1962    1.4402 O.2     1  UNL1       -0.2735
      6 O          -4.4006    0.0682    0.0998 O.2     1  UNL1       -0.2660
      7 O           3.1118    3.3408   -0.7008 O.2     1  UNL1       -0.2755
      8 N          -0.7064   -0.9703   -0.5087 N.am    1  UNL1       -0.2878
      9 N           1.8595   -0.9443    1.2645 N.am    1  UNL1       -0.2983
     10 N          -2.8391    1.6085    0.7624 N.am    1  UNL1       -0.2962
     11 N           4.6034    2.3207   -2.1352 N.am    1  UNL1       -0.3151
     12 N           3.5773   -0.4343    4.1802 N.1     1  UNL1       -0.1946
     13 C          -0.2065   -3.2484   -0.8809 C.3     1  UNL1       -0.0037
     14 C          -1.5757   -3.8761   -1.1157 C.3     1  UNL1       -0.0250
     15 C          -1.0587   -2.7528   -2.0019 C.3     1  UNL1       -0.0142
     16 C           0.0501   -2.0989    0.0639 C.3     1  UNL1        0.1058
     17 C          -1.3662   -1.3104   -1.7674 C.3     1  UNL1        0.0192
     18 C          -1.6029   -5.2626   -1.7128 C.3     1  UNL1       -0.0592
     19 C          -2.7055   -3.6263   -0.1472 C.3     1  UNL1       -0.0592
     20 C           1.5554   -1.7420    0.1838 C.2     1  UNL1        0.2348
     21 C          -1.0222    0.1167    0.2794 C.2     1  UNL1        0.2371
     22 C          -1.9015    1.2562   -0.3096 C.3     1  UNL1        0.1047
     23 C          -1.0844    2.4914   -0.8035 C.3     1  UNL1       -0.0108
     24 C           3.2096   -0.4834    1.5629 C.3     1  UNL1        0.1109
     25 C          -0.2192    3.1191    0.3047 C.3     1  UNL1       -0.0579
     26 C          -2.0581    3.5725   -1.3235 C.3     1  UNL1       -0.0579
     27 C          -0.1659    2.0939   -1.9741 C.3     1  UNL1       -0.0579
     28 C           3.4669    0.9153    0.9792 C.3     1  UNL1       -0.0101
     29 C           3.5800    0.9425   -0.5441 C.3     1  UNL1        0.0396
     30 C          -4.0217    0.8916    0.9352 C.2     1  UNL1        0.3179
     31 C           3.4166   -0.4563    3.0301 C.1     1  UNL1        0.0849
     32 C           4.8395    0.2684   -1.1028 C.3     1  UNL1       -0.0262
     33 C           3.7164    2.3540   -1.0800 C.2     1  UNL1        0.2163
     34 C          -4.8054    1.2331    2.2239 C.3     1  UNL1        0.4694
     35 C           5.0718    0.9971   -2.4136 C.3     1  UNL1        0.0123
     36 H           0.6696   -3.8461   -1.0987 H       1  UNL1        0.0332
     37 H          -0.7713   -2.9697   -3.0219 H       1  UNL1        0.0325
     38 H          -0.3331   -2.3380    1.0632 H       1  UNL1        0.0600
     39 H          -0.9469   -0.6828   -2.5579 H       1  UNL1        0.0468
     40 H          -2.4448   -1.1468   -1.7013 H       1  UNL1        0.0468
     41 H          -2.5412   -5.4258   -2.2531 H       1  UNL1        0.0235
     42 H          -0.7787   -5.4228   -2.4164 H       1  UNL1        0.0235
     43 H          -1.5218   -6.0179   -0.9242 H       1  UNL1        0.0235
     44 H          -2.6876   -2.6310    0.3035 H       1  UNL1        0.0235
     45 H          -3.6681   -3.7378   -0.6576 H       1  UNL1        0.0235
     46 H          -2.6668   -4.3549    0.6696 H       1  UNL1        0.0235
     47 H          -2.4940    0.8817   -1.1476 H       1  UNL1        0.0600
     48 H           1.0743   -0.5000    1.7483 H       1  UNL1        0.1500
     49 H           3.9246   -1.1963    1.1361 H       1  UNL1        0.0657
     50 H          -2.4340    1.9968    1.6122 H       1  UNL1        0.1497
     51 H          -0.8222    3.4474    1.1572 H       1  UNL1        0.0236
     52 H           0.3154    4.0004   -0.0689 H       1  UNL1        0.0236
     53 H           0.5348    2.4182    0.6725 H       1  UNL1        0.0236
     54 H          -1.5139    4.4253   -1.7456 H       1  UNL1        0.0236
     55 H          -2.6980    3.9595   -0.5231 H       1  UNL1        0.0236
     56 H          -2.7082    3.1728   -2.1100 H       1  UNL1        0.0236
     57 H          -0.7453    1.6894   -2.8110 H       1  UNL1        0.0236
     58 H           0.3923    2.9587   -2.3512 H       1  UNL1        0.0236
     59 H           0.5676    1.3407   -1.6738 H       1  UNL1        0.0236
     60 H           4.3896    1.3323    1.4072 H       1  UNL1        0.0300
     61 H           2.6663    1.5952    1.2995 H       1  UNL1        0.0300
     62 H           2.6859    0.5217   -1.0158 H       1  UNL1        0.0395
     63 H           4.7249   -0.8097   -1.2440 H       1  UNL1        0.0288
     64 H           5.6926    0.4324   -0.4321 H       1  UNL1        0.0288
     65 H           6.1240    1.0235   -2.7069 H       1  UNL1        0.0462
     66 H           4.4675    0.5824   -3.2265 H       1  UNL1        0.0462
     67 H           4.7689    3.1433   -2.7026 H       1  UNL1        0.1487
@<TRIPOS>BOND
     1     1    34    1
     2     2    34    1
     3     3    34    1
     4     4    20    2
     5     5    21    2
     6     6    30    2
     7     7    33    2
     8     8    16    1
     9     8    17    1
    10     8    21   am
    11     9    20   am
    12     9    24    1
    13     9    48    1
    14    10    22    1
    15    10    30   am
    16    10    50    1
    17    11    33   am
    18    11    35    1
    19    11    67    1
    20    12    31    3
    21    13    14    1
    22    13    15    1
    23    13    16    1
    24    13    36    1
    25    14    15    1
    26    14    18    1
    27    14    19    1
    28    15    17    1
    29    15    37    1
    30    16    20    1
    31    16    38    1
    32    17    39    1
    33    17    40    1
    34    18    41    1
    35    18    42    1
    36    18    43    1
    37    19    44    1
    38    19    45    1
    39    19    46    1
    40    21    22    1
    41    22    23    1
    42    22    47    1
    43    23    25    1
    44    23    26    1
    45    23    27    1
    46    24    28    1
    47    24    31    1
    48    24    49    1
    49    25    51    1
    50    25    52    1
    51    25    53    1
    52    26    54    1
    53    26    55    1
    54    26    56    1
    55    27    57    1
    56    27    58    1
    57    27    59    1
    58    28    29    1
    59    28    60    1
    60    28    61    1
    61    29    32    1
    62    29    33    1
    63    29    62    1
    64    30    34    1
    65    32    35    1
    66    32    63    1
    67    32    64    1
    68    35    65    1
    69    35    66    1
