REMARK  11 active torsions:
REMARK  status: ('A' for Active; 'I' for Inactive)
REMARK    1  A    between atoms: N_8  and  C_21 
REMARK    2  A    between atoms: N_9  and  C_20 
REMARK    3  A    between atoms: N_9  and  C_24 
REMARK    4  A    between atoms: N_10  and  C_22 
REMARK    5  A    between atoms: N_10  and  C_30 
REMARK    6  A    between atoms: C_16  and  C_20 
REMARK    7  A    between atoms: C_21  and  C_22 
REMARK    8  A    between atoms: C_22  and  C_23 
REMARK    9  A    between atoms: C_24  and  C_28 
REMARK   10  A    between atoms: C_28  and  C_29 
REMARK   11  A    between atoms: C_30  and  C_34 
ROOT
ATOM      1  N   UNL d   1       3.577  -0.434   4.180  0.00  0.00    -0.195 NA
ATOM      2  C   UNL d   1       3.210  -0.483   1.563  0.00  0.00     0.177 C 
ATOM      3  C   UNL d   1       3.417  -0.456   3.030  0.00  0.00     0.085 C 
ENDROOT
BRANCH   2   4
ATOM      4  N   UNL d   1       1.859  -0.944   1.264  0.00  0.00    -0.298 N 
ATOM      5  H   UNL d   1       1.074  -0.500   1.748  0.00  0.00     0.150 HD
BRANCH   4   6
ATOM      6  C   UNL d   1       1.555  -1.742   0.184  0.00  0.00     0.235 C 
ATOM      7  O   UNL d   1       2.415  -2.115  -0.612  0.00  0.00    -0.274 OA
BRANCH   6   8
ATOM      8  C   UNL d   1       0.050  -2.099   0.064  0.00  0.00     0.166 A 
ATOM      9  N   UNL d   1      -0.706  -0.970  -0.509  0.00  0.00    -0.288 N 
ATOM     10  C   UNL d   1      -1.366  -1.310  -1.767  0.00  0.00     0.113 A 
ATOM     11  C   UNL d   1      -1.059  -2.753  -2.002  0.00  0.00     0.018 A 
ATOM     12  C   UNL d   1      -0.206  -3.248  -0.881  0.00  0.00     0.029 A 
ATOM     13  C   UNL d   1      -1.576  -3.876  -1.116  0.00  0.00    -0.025 A 
ATOM     14  C   UNL d   1      -1.603  -5.263  -1.713  0.00  0.00     0.011 C 
ATOM     15  C   UNL d   1      -2.705  -3.626  -0.147  0.00  0.00     0.011 C 
BRANCH   9  16
ATOM     16  C   UNL d   1      -1.022   0.117   0.279  0.00  0.00     0.237 C 
ATOM     17  O   UNL d   1      -0.596   0.196   1.440  0.00  0.00    -0.274 OA
BRANCH  16  18
ATOM     18  C   UNL d   1      -1.901   1.256  -0.310  0.00  0.00     0.165 C 
BRANCH  18  19
ATOM     19  N   UNL d   1      -2.839   1.609   0.762  0.00  0.00    -0.296 N 
ATOM     20  H   UNL d   1      -2.434   1.997   1.612  0.00  0.00     0.150 HD
BRANCH  19  21
ATOM     21  C   UNL d   1      -4.022   0.892   0.935  0.00  0.00     0.318 C 
ATOM     22  O   UNL d   1      -4.401   0.068   0.100  0.00  0.00    -0.266 OA
BRANCH  21  23
ATOM     23  C   UNL d   1      -4.805   1.233   2.224  0.00  0.00     0.469 C 
ATOM     24  F   UNL d   1      -5.190   0.126   2.913  0.00  0.00    -0.162 F 
ATOM     25  F   UNL d   1      -5.932   1.952   1.970  0.00  0.00    -0.162 F 
ATOM     26  F   UNL d   1      -4.058   1.983   3.086  0.00  0.00    -0.162 F 
ENDBRANCH  21  23
ENDBRANCH  19  21
ENDBRANCH  18  19
BRANCH  18  27
ATOM     27  C   UNL d   1      -1.084   2.491  -0.803  0.00  0.00    -0.011 C 
ATOM     28  C   UNL d   1      -0.219   3.119   0.305  0.00  0.00     0.013 C 
ATOM     29  C   UNL d   1      -2.058   3.572  -1.323  0.00  0.00     0.013 C 
ATOM     30  C   UNL d   1      -0.166   2.094  -1.974  0.00  0.00     0.013 C 
ENDBRANCH  18  27
ENDBRANCH  16  18
ENDBRANCH   9  16
ENDBRANCH   6   8
ENDBRANCH   4   6
ENDBRANCH   2   4
BRANCH   2  31
ATOM     31  C   UNL d   1       3.467   0.915   0.979  0.00  0.00     0.050 C 
BRANCH  31  32
ATOM     32  C   UNL d   1       3.580   0.943  -0.544  0.00  0.00     0.079 C 
ATOM     33  C   UNL d   1       4.840   0.268  -1.103  0.00  0.00     0.031 C 
ATOM     34  C   UNL d   1       5.072   0.997  -2.414  0.00  0.00     0.105 C 
ATOM     35  N   UNL d   1       4.603   2.321  -2.135  0.00  0.00    -0.315 N 
ATOM     36  C   UNL d   1       3.716   2.354  -1.080  0.00  0.00     0.216 C 
ATOM     37  H   UNL d   1       4.769   3.143  -2.703  0.00  0.00     0.149 HD
ATOM     38  O   UNL d   1       3.112   3.341  -0.701  0.00  0.00    -0.276 OA
ENDBRANCH  31  32
ENDBRANCH   2  31
TORSDOF 8
